# 2021-12-10: Taken from D-Flow FM UM, D.4.1, example 1.
[General]
    fileVersion           = 2.00
    fileType              = 1dField

[Global]
    quantity              = waterDepth
    unit                  = m
    value                 = 10.000                # default value

[Branch]
    branchId              = Channel1              # overrule for Channel1
    numLocations          = 2                     # at two locations
    chainage              = 0.000 100.000
    values                = 7.000 7.500           # 7 at 0m and 7.5 at 100m

[Branch]
    branchId              = Channel4              # overrule for Channel4
    values                = 8.000                 # uniform value
