# 2021-12-02: Taken from D-Flow FM UM, C.16.1, example 1.
[General]
    fileVersion           = 3.00
    fileType              = crossDef

[Definition]
    id                    = Prof1
    type                  = circle
    thalweg               = 0.0
    diameter              = 2.0
    frictionId            = Brick

[Definition]
    id                    = Prof1A
    type                  = circle
    thalweg               = 0.0
    diameter              = 2.0
    frictionType          = WhiteColebrook
    frictionValue         = 0.1

[Definition]
    id                    = Prof2
    type                  = zw
    thalweg               = 0.0
    template              = steelMouth           # template name and
    height                = 0.950                # values used by GUI
    r                     = 0.600
    r1                    = 0.500
    r2                    = 0.000
    r3                    = 0.000
    a                     = 0.000
    a1                    = 0.000 
    numLevels             = 43                   # zw levels used by kernel
    levels                = 0.00000 0.00873 0.01746 0.02619 0.03492 0.04365 0.05238 0.06111 0.06984 0.07857 0.08730 0.09603 0.10476 0.11349 0.12222 0.13095 0.13968 0.14841 0.15714 0.16587 0.17460 0.18333 0.19206 0.20079 0.20952 0.21825 0.22698 0.23571 0.24444 0.25317 0.26190 0.27063 0.27937 0.28810 0.29683 0.30556 0.31429 0.32302 0.33175 0.34048 0.34921 0.35794 0.36667
    flowWidths            = 0.00000 0.18605 0.26196 0.31940 0.36716 0.40863 0.44559 0.47907 0.50976 0.53814 0.56455 0.58927 0.61249 0.63439 0.65508 0.67470 0.69331 0.71102 0.72787 0.74393 0.75925 0.77388 0.78785 0.80119 0.80964 0.79011 0.76970 0.74832 0.72589 0.70231 0.67746 0.65120 0.62335 0.59367 0.56190 0.52763 0.49036 0.44934 0.40341 0.35067 0.28738 0.20396 0.00000
    frictionId            = Steel

[Definition]
    id                    = xyzProf1
    type                  = xyz
    thalweg               = 283.746
    xyzCount              = 6
    xCoordinates          = 1920.254 1925.508 1925.508 1925.508 1930.761 1930.761
    yCoordinates          = 1452.223 1168.526 1026.677 953.126 900.589 884.828
    zCoordinates          = 10.000 0.004 4.994 7.585 9.445 10.000
    conveyance            = segmented
    sectionCount          = 3                   
    frictionPositions     = 0.000 158.032 344.304 567.706       
    frictionIds           = LeftBank; Main; RightBank
