# 2022-07-08: Taken from D-Flow FM UM, C.16.2, example 1.
[General]
    fileVersion = 1.01
    fileType = crossLoc

[CrossSection]
    id = Channel1_50.000
    branchId = Channel1
    chainage = 50.000
    shift = 1.0
    definitionId = Prof1

[CrossSection]
    id = Channel2_300.000
    branchId = Channel2
    chainage = 300.000
    shift = 0.0
    definitionId = Prof2
