# 2021-12-01: Taken from D-Flow FM UM, D.2, example 1.

[General]
fileVersion = 2.00
fileType = iniField

# comments
[Initial]
quantity = waterlevel
dataFile = iniwaterlevels.asc
dataFileType = arcinfo
interpolationMethod = triangulation
locationType = 2d

[Initial]
quantity = bedlevel
dataFile = inibedlevel.ini
dataFileType = 1dField

[Parameter]
quantity = frictioncoefficient
dataFile = manning.xyz
dataFileType = sample
interpolationMethod = triangulation

[Parameter]
quantity = frictioncoefficient
dataFile = calibration1.pol
dataFileType = polygon
interpolationMethod = constant
value = 0.03
operand = *