# 2022-05-19: Taken from D-Flow FM UM, F.2.2.1, example 1.
[General]
fileVersion = 2.00
fileType    = obsPoints

[ObservationPoint]
name         = ABDN
x            = -2.06250000e+00
y            = 5.71583333e+01

[ObservationPoint]
name         = AVMH
x            = -2.73750000e+00
y            = 5.15083334e+01

[ObservationPoint]
name         = #St Helier Jersey#
x            = -2.11250000e+00
y            = 4.91750000e+01

[ObservationPoint]
name         = Obs4
branchId     = Channel1
chainage     = 275.0

[ObservationPoint]
name         = Obs5
locationType = 1d
x            = -2.31250000e+00
y            = 5.01750000e+01