# Generated on 11:44:51, 03-05-2022
# Deltares, D-Flow FM Version 1.2.143.140737, Feb 10 2022, 17:35:02
# Source:https://svn.oss.deltares.nl/repos/delft3d/branches/releases/140712/

[General]
Program                                   = D-Flow FM           # Program
Version                                   = 1.2.143.140737      # Version number of computational kernel
fileType                                  = modelDef            # File type. Do not edit this.
fileVersion                               = 1.09                # File format version (do not edit this)
AutoStart                                 = 0                   # Autostart simulation after loading MDU (0: no, 1: autostart, 2: autostartstop)
PathsRelativeToParent                     = 0                   # Default: 0. Whether or not (1/0) to resolve file names (e.g. inside the *.ext file) relative to their direct parent, instead of to the toplevel MDU working dir.

[geometry]
NetFile                                   =
GridEnclosureFile                         =                     # Enclosure file to clip outer parts from the grid *.pol
DryPointsFile                             =
CrossDefFile                              =                     # 1D Cross section definition file (*.ini)
CrossLocFile                              =                     # 1D Cross section location file (*.ini)
StorageNodeFile                           =                     # 1D Storage node/manhole file (*.ini)
frictFile                                 =                     # 1D Roughness files (*.ini)
StructureFile                             =
WaterLevIniFile                           =                     # Initial water levels sample file *.xyz using flood fill algorithm
LandBoundaryFile                          =                     # Land boundaries file *.ldb, used for visualization
ThinDamFile                               =
FixedWeirFile                             =                     # Polyline file *_fxw.pliz, containing fixed weirs with rows x, y, crest level, left ground level, right ground level
PillarFile                                =                     # Polyline file *_pillar.pliz, containing four colums with x, y, diameter and Cd coefficient
Gulliesfile                               =                     # Polyline file *_gul.pliz, containing lowest bed level along talweg x, y, z level
Roofsfile                                 =                     # Polyline file *_rof.pliz, containing roofgutter heights x, y, z level
VertplizFile                              =                     # Vertical layering file *_vlay.pliz with rows x, y, Z, first Z, nr of layers, second Z, layer type
ProflocFile                               =                     # Channel profile location file *_proflocation.xyz with rows x, y, z, profile number ref
ProfdefFile                               =                     # Channel profile definition file *_profdefinition.def with definition for all profile numbers
ProfdefxyzFile                            =                     # Channel profile definition file _profdefinition.def with definition for all profile numbers
IniFieldFile                              =                     # Initial values and parameter fields file
UseCaching                                = 0                   # Use caching for geometrical/network-related items (0: no, 1: yes)
Uniformwidth1D                            = 2.                  # Uniform width for channel profiles not specified by profloc
Uniformheight1D                           = 3.                  # Uniform height for channel profiles not specified by profloc
Uniformtyp1Dstreetinlets                  = -2                  # Uniform type street inlets
Uniformtyp1Droofgutterpipes               = -2                  # Uniform type roof gutter pipes
1D2DLinkFile                              =                     # File *.ini containing custom parameters for 1D2D links
ManholeFile                               =                     # File *.ini containing manholes
WaterLevIni                               = 0.                  # Initial water levels sample file *.xyz using flood fill algorithm
BedlevUni                                 = 5.                  # Uniform bed level used at missing z values if BedlevType > 2
BedlevType                                = 3                   # Bathymetry specification
                                                                # 1: at cell centers (from BathymetryFile)
                                                                # 2: at faces (from BathymetryFile)
                                                                # 3: at nodes, face levels mean of node values
                                                                # 4: at nodes, face levels min. of node values
                                                                # 5: at nodes, face levels max. of node values
                                                                # 6: at nodes, face levels max. of cell-center values
Blmeanbelow                               = -999.               # If not -999d0, below this level the cell center bed level is the mean of surrouding net nodes
Blminabove                                = -999.               # If not -999d0, above this level the cell center bed level is the min. of surrouding net nodes
AngLat                                    = 0.                  # Angle of latitude S-N (deg), 0: no Coriolis
AngLon                                    = 0.                  # Angle of longitude E-W (deg), 0: Greenwich, used in solar heat flux computation.
Conveyance2D                              = -1                  # -1: R=HU,0: R=H, 1: R=A/P, 2: K=analytic-1D conv, 3: K=analytic-2D conv
Slotw2D                                   = 0.                  # -
Sillheightmin                             = 0.                  # Weir treatment only if both sills larger than this value (m)
Makeorthocenters                          = 0                   # Switch from circumcentres to orthocentres in geominit (i>=1: number of iterations, 0: do not use)
Dcenterinside                             = 1.                  # Limit cell center (1.0: in cell, 0.0: on c/g)
Bamin                                     = 1.d-6               # Minimum grid cell area, in combination with cut cells
OpenBoundaryTolerance                     = 0.1                 # Search tolerance factor between boundary polyline and grid cells, in cell size units
AllowBndAtBifurcation                     = 0                   # Allow 1d boundary node when connecting branch leads to bifurcation (1: yes, 0: no)
RenumberFlowNodes                         = 1                   # Renumber the flow nodes (1: yes, 0: no)
dxDoubleAt1DEndNodes                      = 1                   # Extend 1D end nodes by 0.5 dx (1: yes, 0: no).
ChangeVelocityAtStructures                = 0                   # Change the flow velocity at structures in the advection calculation
ChangeStructureDimensions                 = 1                   # Change the structure dimensions of (universal) weirs, orifices, bridges and general structures in case these dimensions exceed the dimensions of the channel
Kmx                                       = 50                  # Maximum number of vertical layers
Layertype                                 = 2                   # Vertical layer type (1: all sigma, 2: all z, 3: use VertplizFile)
Numtopsig                                 = 20                  # Number of sigma layers in top of z-layer model
SigmaGrowthFactor                         = 1.19                # Layer thickness growth factor from bed up
Dztop                                     = 5.                  # Z-layer thickness of layers above level Dztopuniabovez
StretchType                               = -1                  # Type of layer stretching, 0 = uniform, 1 = user defined, 2 = fixed level double exponential
Floorlevtoplay                            = -5.                 # Floor level of top layer
Dztopuniabovez                            = -100.               # Above this level layers will have uniform Dztop, below we use SigmaGrowthFactor
Keepzlayeringatbed                        = 2                   # 0:possibly very thin layer at bed, 1:bedlayerthickness == zlayerthickness, 2=equal thickness first two layers

[volumeTables]
useVolumeTables                           = 0                   # Use 1D volume tables (1: yes, 0: no).

[numerics]
CFLMax                                    = 0.7                 # Maximum Courant number
EpsMaxlev                                 = 1.d-8               # Stop criterium for non linear iteration
EpsMaxlevm                                = 1.d-8               # Stop criterium for Nested Newton loop in non linear iteration
AdvecType                                 = 33                  # Advection type (0: none, 1: Wenneker, 2: Wenneker q(uio-u), 3: Perot q(uio-u), 4: Perot q(ui-u), 5: Perot q(ui-u) without itself), 33: as 3 using links (faster)
AdvecCorrection1D2D                       = 0                   # Advection correction of 1D2D link volume (0: regular advection, 1: link volume au*dx, 2: advection on 1D2D switched off.
TimeStepType                              = 2                   # Time step handling (0: only transport, 1: transport + velocity update, 2: full implicit step-reduce, 3: step-Jacobi, 4: explicit)
maxNonlinearIterations                    = 100                 # Maximal iterations in non-linear iteration loop before a time step reduction is applied
setHorizontalBobsFor1d2d                  = 0                   # bobs are set to 2D bedlevel, to prevent incorrect storage in sewer system (0: no, 1:yes).
Limtyphu                                  = 0                   # Limiter type for waterdepth in continuity eqn. (0: none, 1: minmod, 2: van Leer, 3: Kooren, 4: monotone central)
Limtypmom                                 = 4                   # Limiter type for cell center advection velocity (0: none, 1: minmod, 2: van Leer, 3: Kooren, 4: monotone central)
Limtypsa                                  = 4                   # Limiter type for salinity transport (0: none, 1: minmod, 2: van Leer, 3: Kooren, 4: monotone central)
TransportAutoTimestepdiff                 = 0                   # Auto Timestepdiff in Transport, 0 : lim diff, no lim Dt_tr, 1 : no lim diff, lim Dt_tr, 2: no lim diff, no lim Dt_tr, 3=implicit (only 2D)
Implicitdiffusion2D                       = 0                   # 1 = Yes, 0 = No
Vertadvtypsal                             = 6                   # Vertical advection type for salinity (0: none, 1: upwind explicit, 2: central explicit, 3: upwind implicit, 4: central implicit, 5: central implicit but upwind for neg. stratif., 6: higher order explicit, no Forester)
Vertadvtyptem                             = 6                   # Vertical advection type for temperature (0: none, 1: upwind explicit, 2: central explicit, 3: upwind implicit, 4: central implicit, 5: central implicit but upwind for neg. stratif., 6: higher order explicit, no Forester)
Vertadvtypmom                             = 6                   # Vertical advection type for u1: 0: No, 3: Upwind implicit, 4: Central implicit, 5: QUICKEST implicit., 6: centerbased upwind expl, 7=6 HO
Pure1D                                    = 0                   # 0 = org 1D advec, 1 = pure1D using vol1_f, 2 = pure1D using vol1
Icgsolver                                 = 6                   # Solver type (1: sobekGS_OMP, 2: sobekGS_OMPthreadsafe, 3: sobekGS, 4: sobekGS + Saadilud, 5: parallel/global Saad, 6: parallel/Petsc, 7: parallel/GS)
Maxdegree                                 = 6                   # Maximum degree in Gauss elimination
FixedWeirScheme                           = 0                   # Fixed weir scheme (0: none, 1: compact stencil, 2: whole tile lifted, full subgrid weir + factor)
FixedWeirContraction                      = 1.                  # Fixed weir flow width contraction factor
Fixedweirtopwidth                         = 3.                  # Uniform width of the groyne part of fixed weirs
Fixedweirtopfrictcoef                     = -999.               # Uniform friction coefficient of the groyne part of fixed weirs
Fixedweirtalud                            = 4.                  # Uniform talud slope of fixed weirs
FixedweirRelaxationcoef                   = 0.6                 # Fixed weir relaxation coefficient for computation of energy loss
Izbndpos                                  = 1                   # Position of z boundary (0: D3Dflow, 1: on net boundary, 2: on specified polyline)
Tlfsmo                                    = 86400.              # Fourier smoothing time (s) on water level boundaries
Keepstbndonoutflow                        = 1                   # Keep sal and tem signals on bnd also at outflow, 1=yes, 0=no=default=copy inside value on outflow
Tspinupturblogprof                        = 0.                  # During Tspinup force log profiles to avoid almost zero vertical eddy viscosity
Slopedrop2D                               = 0.                  # Apply drop losses only if local bed slope > Slopedrop2D, (<=0: no drop losses)
Drop1D                                    = 0                   # Apply drop losses in 1D (0: no, 1:yes)
Chkadvd                                   = 0.1                 # Check advection terms if depth < chkadvdp, => less setbacks
Teta0                                     = 0.55                # Theta of time integration (0.5 < theta < 1)
cstbnd                                    = 0                   # Delft-3D type velocity treatment near boundaries for small coastal models (1: yes, 0: no)
Maxitverticalforestersal                  = 0                   # Forester iterations for salinity (0: no vertical filter for salinity, > 0: max nr of iterations)
Maxitverticalforestertem                  = 0                   # Forester iterations for temperature (0: no vertical filter for temperature, > 0: max nr of iterations)
Turbulencemodel                           = 3                   # Turbulence model (0: none, 1: constant, 2: algebraic, 3: k-epsilon, 4: k-tau)
Turbulenceadvection                       = 3                   # Turbulence advection (0: none, 3: horizontally explicit and vertically implicit)
AntiCreep                                 = 0                   # Include anti-creep calculation (0: no, 1: yes)
Maxwaterleveldiff                         = 0.                  # upper bound (in m) on water level changes (<= 0: no bounds). Run will abort when violated.
Maxvelocitydiff                           = 0.                  # upper bound (in m/s) on velocity changes (<= 0: no bounds). Run will abort when violated.
Maxvelocity                               = 0.                  # upper bound (in m/s) on velocity (<= 0: no bounds). Run will abort when violated.
Waterlevelwarn                            = 0.                  # warning level (in m) on water level (<= 0: no check).
Velocitywarn                              = 0.                  # warning level (in m/s) on velocity u1 (<= 0: no check).
Velmagnwarn                               = 0.                  # warning level (in m/s) on velocity magnitude (<= 0: no check).
MinTimestepBreak                          = 0.1                 # smallest allowed timestep (in s), checked on a sliding average of several timesteps. Run will abort when violated.
Epshu                                     = 1.d-4               # Threshold water depth for wet and dry cells
HorizontalMomentumFilter                  = 0                   # apply horizontal filter (1:explicit, 2,3:implicit) or not (0)
checkerboardmonitor                       = 0                   # compute and output checkerboard monitor (1) or not (0)

[physics]
UnifFrictCoef                             = 2.8d-2              # Uniform friction coefficient (0: no friction)
UnifFrictType                             = 1                   # Uniform friction type (0: Chezy, 1: Manning, 2: White-Colebrook, 3: idem, WAQUA style)
UnifFrictCoef1D                           = 2.3d-2              # Uniform friction coefficient in 1D links (0: no friction)
UnifFrictCoefLin                          = 0.                  # Uniform linear friction coefficient (0: no friction)
Vicouv                                    = 0.1                 # Uniform horizontal eddy viscosity (m2/s)
Dicouv                                    = 0.1                 # Uniform horizontal eddy diffusivity (m2/s)
Vicoww                                    = 1.d-4               # Uniform vertical eddy viscosity (m2/s)
Dicoww                                    = 1.5d-5              # Uniform vertical eddy diffusivity (m2/s)
Vicwminb                                  = 0.                  # Minimum visc in prod and buoyancy term (m2/s)
Xlozmidov                                 = 0.                  # Ozmidov length scale (m), default=0.0, no contribution of internal waves to vertical diffusion
Smagorinsky                               = 0.2                 # Smagorinsky factor in horizontal turbulence, e.g. 0.15
Elder                                     = 0.                  # Elder factor in horizontal turbulence
irov                                      = 0                   # 0=free slip, 1 = partial slip using wall_ks
wall_ks                                   = 0.                  # Wall roughness type (0: free slip, 1: partial slip using wall_ks)
Rhomean                                   = 1023.               # Average water density (kg/m3)
Idensform                                 = 2                   # Density calulation (0: uniform, 1: Eckart, 2: Unesco, 3: baroclinic case)
Ag                                        = 9.813               # Gravitational acceleration
TidalForcing                              = 1                   # Tidal forcing, if jsferic=1 (0: no, 1: yes)
ITcap                                     = 1.                  # Upper limit on internal tides dissipation (W/m^2)
Doodsonstart                              = 55.565              # TRIWAQ: 55.565, D3D: 57.555
Doodsonstop                               = 375.575             # TRIWAQ: 375.575, D3D: 275.555
Doodsoneps                                = 0.                  # TRIWAQ = 0.0  400 cmps , D3D = 0.03   60 cmps
VillemonteCD1                             = 1.                  # Calibration coefficient for Villemonte. Default = 1.0.
VillemonteCD2                             = 10.                 # Calibration coefficient for Villemonte. Default = 10.0.
Salinity                                  = 1                   # Include salinity, (0=no, 1=yes)
InitialSalinity                           = 35.1                # Uniform initial salinity concentration (ppt)
Sal0abovezlev                             = -999.               # Vertical level (m) above which salinity is set 0
DeltaSalinity                             = -999.               # for testcases
Salimax                                   = -999.               # Limit the salinity
Salimin                                   = 0.                  # Limit the salinity
Backgroundsalinity                        = 35.                 # Background salinity for eqn. of state (psu) if salinity not computed
Backgroundwatertemperature                = 10.                 # Background water temperature for eqn. of state (deg C) if temperature not computed
Temperature                               = 5                   # Include temperature (0: no, 1: only transport, 3: excess model of D3D, 5: composite (ocean) model)
InitialTemperature                        = 5.5                 # Uniform initial water temperature (degC)
Secchidepth                               = 4.                  # Water clarity parameter (m)
Stanton                                   = 1.3d-3              # Coefficient for convective heat flux, if negative, Ccon = abs(Stanton)*Cdwind
Dalton                                    = 1.3d-3              # Coefficient for evaporative heat flux, if negative, Ceva = abs(Dalton)*Cdwind
Tempmax                                   = 50.                 # Limit the temperature
Tempmin                                   = -5.                 # Limit the temperature
Heat_eachstep                             = 1                   # 1=heat each timestep, 0=heat each usertimestep
RhoairRhowater                            = 1                   # windstress rhoa/rhow: 0=Rhoair/Rhomean, 1=Rhoair/rhow(), 2=rhoa0()/rhow(), 3=rhoa10()/Rhow()
SecondaryFlow                             = 0                   # Secondary flow (0: no, 1: yes)
BetaSpiral                                = 0.                  # Weight factor of the spiral flow intensity on flow dispersion stresses

[sediment]
Sedimentmodelnr                           = 0                   # Sediment model nr, (0=no, 1=Krone, 2=SvR2007, 3=E-H, 4=MorphologyModule)

[veg]
Vegetationmodelnr                         = 0                   # Vegetation model nr, (0=no, 1=Baptist DFM)
Clveg                                     = 0.8                 # Stem distance factor, default 0.8 ()
Cdveg                                     = 0.7                 # Stem Cd coefficient , default 0.7 ()
Cbveg                                     = 0.                  # Stem stiffness coefficient , default 0.7 ()
Rhoveg                                    = 0.                  # Stem Rho, if > 0, -> bouyant stick procedure, default 0.0 ()
Stemheightstd                             = 0.                  # Stem height standard deviation fraction, e.g. 0.1  ()

[wind]
ICdtyp                                    = 4                   # Wind drag coefficient type (1=Const; 2=Smith&Banke (2 pts); 3=S&B (3 pts); 4=Charnock 1955, 5=Hwang 2005, 6=Wuest 2005, 7=Hersbach 2010 (2 pts)
Cdbreakpoints                             = 2.8618830252431d-2  # Wind drag coefficient break points
Relativewind                              = 1                   # Wind speed relative to top-layer water speed, 1=yes, 0 = no)
Windpartialdry                            = 1                   # Reduce windstress on water if link partially dry, only for bedlevtyp=3, 0 = no, 1 = yes = default
Rhoair                                    = 1.2265              # Air density (kg/m3)
PavBnd                                    = 101330.             # Average air pressure on open boundaries (N/m2) (only applied if > 0)
Pavini                                    = 0.                  # Average air pressure for initial water level correction (N/m2) (only applied if > 0)

[grw]
groundwater                               = 0                   # 0=No (horizontal) groundwater flow, 1=With groundwater flow
Infiltrationmodel                         = 0                   # Infiltration method (0: No infiltration1: Interception layer2: Constant infiltration capacity3: model unsaturated/saturated (with grw)4: Horton)
Hinterceptionlayer                        = 0.                  # Intercept this amount of rain (m)
UnifInfiltrationCapacity                  = 0.                  # Uniform maximum infiltration capacity (m/s)
Conductivity                              = 0.                  # non dimensionless K conductivity   saturated (m/s), Q = K*A*i (m3/s)
h_aquiferuni                              = 20.                 # bgrw = bl - h_aquiferuni (m), if negative, bgrw = bgrwuni
h_unsatini                                = 0.200000002980232   # initial level groundwater is bedlevel - h_unsatini (m), if negative, sgrw = sgrwini

[hydrology]
InterceptionModel                         = 0                   # Interception model (0: none, 1: on, via layer thickness)

[waves]
Wavemodelnr                               = 0                   # Wave model nr. (0: none, 1: fetch/depth limited hurdlestive, 2: Young-Verhagen, 3: SWAN, 5: uniform, 6: SWAN-NetCDF
Rouwav                                    = FR84                # Friction model for wave induced shear stress: FR84 (default) or: MS90, HT91, GM79, DS88, BK67, CJ85, OY88, VR04
Gammax                                    = 1.                  # Maximum wave height/water depth ratio

[time]
RefDate                                   = 20111222            # Reference date (yyyymmdd)
Tzone                                     = 0.                  # Time zone assigned to input time series
DtUser                                    = 600.                # Time interval (s) for external forcing update
DtNodal                                   = 21600.              # Time interval (s) for updating nodal factors in astronomical boundary conditions
DtMax                                     = 100.                # Maximal computation timestep (s)
DtInit                                    = 60.                 # Initial computation timestep (s)
AutoTimestep                              = 3                   # 0 = no, 1 = 2D (hor. out), 3=3D (hor. out), 5 = 3D (hor. inout + ver. inout), smallest dt
AutoTimestepNoStruct                      = 0                   # 0 = no, 1 = yes (Exclude structure links (and neighbours) from time step limitation)
AutoTimestepNoQout                        = 1                   # 0 = no, 1 = yes (Exclude negative qin terms from time step limitation)
Tunit                                     = M                   # Time unit for start/stop times (D, H, M or S)
TStart                                    = 14400.              # Start time w.r.t. RefDate (in TUnit)
TStop                                     = 3170880.            # Stop  time w.r.t. RefDate (in TUnit)
Startdatetime                             = 20120101000000      # Computation Startdatetime (yyyymmddhhmmss), when specified, overrides Tstart
Stopdatetime                              = 20180101000000      # Computation Stopdatetime  (yyyymmddhhmmss), when specified, overrides Tstop
UpdateRoughnessInterval                   = 86400.              # Update interval for time dependent roughness parameters (in s)

[restart]
RestartFile                               =                     # Restart netcdf-file, either *_rst.nc or *_map.nc
RestartDateTime                           = yyyymmddhhmmss      # Restart date and time (yyyymmddhhmmss) when restarting from *_map.nc

[external forcing]
ExtForceFile                              =
ExtForceFileNew                           =
Rainfall                                  = 1                   # Include rainfall, (0=no, 1=yes)
QExt                                      = 0                   # Include user Qin/out, externally provided, (0=no, 1=yes)
Evaporation                               = 0                   # Include evaporation in water balance, (0=no, 1=yes)
WindExt                                   = 1                   # Include wind, externally provided, (0=no, 1=reserved for EC, 2=yes)

[trachytopes]
TrtRou                                    = N                   # Include alluvial and vegetation roughness (trachytopes) (Y: yes, N: no)
TrtDef                                    =                     # File (*.ttd) including trachytope definitions
TrtL                                      =                     # File (*.arl) including distribution of trachytope definitions
DtTrt                                     = 600.                # Trachytope roughness update time interval (s)
TrtMxR                                    = 100                 # Maximum recursion level for composite trachytope definitions

[calibration]
UseCalibration                            = 0                   # Activate calibration factor friction multiplier (1 = yes, 0 = no)
DefinitionFile                            =                     # File (*.cld) including calibration definitions
AreaFile                                  =                     # File (*.cll) including area distribution of calibration definitions

[output]
OutputDir                                 =                     # Output directory of map-, his-, rst-, dat- and timings-files, default: DFM_OUTPUT_<modelname>. Set to . for current dir.
FlowGeomFile                              =                     # Flow geometry NetCDF *_flowgeom.nc
ObsFile                                   =
CrsFile                                   =
FouFile                                   =
FouUpdateStep                             = 0                   # Fourier update step type: 0=every user time step, 1=every computational timestep, 2=same as history output.
HisFile                                   =                     # HisFile name *_his.nc
MapFile                                   =                     # MapFile name *_map.nc
HisInterval                               = 600. 864000. 190252800.# History times (s), interval, starttime, stoptime (s), if starttime, stoptime are left blank, use whole simulation period
XLSInterval                               = 0.                  # Interval (s) XLS history
MapInterval                               = 86400. 64065600. 95515200.# Map times (s), interval, starttime, stoptime (s), if starttime, stoptime are left blank, use whole simulation period
RstInterval                               = 31536000. 864000. 190252800.# Restart times (s), interval, starttime, stoptime (s), if starttime, stoptime are left blank, use whole simulation period
WaqOutputDir                              =                     # Output directory of WAQ communication files (flowgeom, vol, flo, etc.), default: DFM_DELWAQ_<modelname>. Set to . for current dir.
WaqInterval                               = 0. 864000. 190252800.# DELWAQ output times, given as "interval" "start period" "end period" (s)
ClassMapInterval                          = -999. 864000. 190252800.# Class map times (s), interval, starttime, stoptime (s), if starttime, stoptime are left blank, use whole simulation period
ClassMapFile                              =                     # ClassMapFile name *_clm.nc
WaterlevelClasses                         =                     # Class map's list of class values for water levels
WaterDepthClasses                         =                     # Class map's list of class values for water depths
StatsInterval                             = -60.                # Screen step output interval in seconds simulation time, if negative in seconds wall clock time
TimingsInterval                           = 86400.              # Timings statistics output interval
MapFormat                                 = 4                   # Map file format, 1: netCDF, 2: Tecplot, 3: netCFD and Tecplot, 4: NetCDF-UGRID
NcFormat                                  = 4                   # Format for all NetCDF output files (3: classic, 4: NetCDF4+HDF5)
NcNoUnlimited                             = 0                   # Write full-length time-dimension instead of unlimited dimension (1: yes, 0: no). (Might require NcFormat=4.)
NcNoForcedFlush                           = 0                   # Do not force flushing of map-like files every output timestep (1: yes, 0: no).
NcWriteLatLon                             = 0                   # Write extra lat-lon coordinates for all projected coordinate variables in each NetCDF file (for CF-compliancy).
Wrihis_balance                            = 0                   # Write mass balance totals to his file (1: yes, 0: no)
Wrihis_sourcesink                         = 0                   # Write sources-sinks statistics to his file (1: yes, 0: no)
Wrihis_structure_gen                      = 0                   # Write general structure parameters to his file (1: yes, 0: no)
Wrihis_structure_dam                      = 0                   # Write dam parameters to his file (1: yes, 0: no)
Wrihis_structure_pump                     = 0                   # Write pump parameters to his file (1: yes, 0: no)
Wrihis_structure_gate                     = 0                   # Write gate parameters to his file (1: yes, 0: no)
Wrihis_structure_weir                     = 0                   # Write weir parameters to his file (1: yes, 0: no)
Wrihis_structure_orifice                  = 0                   # Write orifice parameters to his file (1: yes, 0: no)
Wrihis_structure_bridge                   = 0                   # Write bridge parameters to his file (1: yes, 0: no)
Wrihis_structure_culvert                  = 0                   # Write culvert parameters to his file (1: yes, 0: no)
Wrihis_structure_damBreak                 = 0                   # Write dam break parameters to his file (1: yes, 0: no)
Wrihis_structure_uniWeir                  = 0                   # Write universal weir parameters to his file (1: yes, 0: no)
Wrihis_structure_compound                 = 0                   # Write compound structure parameters to his file (1: yes, 0: no)
Wrihis_structure_longculvert              = 1                   # Write long culvert parameters to his file (1: yes, 0: no)
Wrihis_turbulence                         = 0                   # Write k, eps and vicww to his file (1: yes, 0: no)
Wrihis_wind                               = 0                   # Write wind velocities to his file (1: yes, 0: no)
Wrihis_rain                               = 0                   # Write precipitation to his file (1: yes, 0: no)
Wrihis_infiltration                       = 1                   # Write infiltration to his file (1: yes, 0: no)
Wrihis_temperature                        = 1                   # Write temperature to his file (1: yes, 0: no)
Wrihis_waves                              = 0                   # Write wave data to his file (1: yes, 0: no)
Wrihis_heat_fluxes                        = 0                   # Write heat fluxes to his file (1: yes, 0: no)
Wrihis_salinity                           = 1                   # Write salinity to his file (1: yes, 0: no)
Wrihis_density                            = 0                   # Write density to his file (1: yes, 0: no)
Wrihis_waterlevel_s1                      = 1                   # Write water level to his file (1: yes, 0: no)
Wrihis_bedlevel                           = 1                   # Write bed level to his file (1: yes, 0: no)
Wrihis_waterdepth                         = 0                   # Write waterd epth to his file (1: yes, 0: no)
Wrihis_velocity_vector                    = 1                   # Write velocity vectors to his file (1: yes, 0: no)
Wrihis_upward_velocity_component          = 0                   # Write upward velocity to his file (1: yes, 0: no)
Wrihis_sediment                           = 0                   # Write sediment transport to his file (1: yes, 0: no)
Wrihis_constituents                       = 0                   # Write tracers to his file (1: yes, 0: no)
Wrihis_zcor                               = 1                   # Write vertical coordinates to his file (1: yes, 0: no)
Wrihis_lateral                            = 0                   # Write lateral data to his file (1: yes, 0: no)
Wrihis_taucurrent                         = 0                   # Write mean bed shear stress to his file (1: yes, 0: no)
Wrihis_velocity                           = 0                   # Write velocity magnitude to his file (1: yes, 0: no)
Wrihis_discharge                          = 0                   # Write discharge magnitude to his file (1: yes, 0: no)
Wrimap_waterlevel_s0                      = 0                   # Write water levels for previous time step to map file (1: yes, 0: no)
Wrimap_waterlevel_s1                      = 1                   # Write water levels to map file (1: yes, 0: no)
Wrimap_flow_analysis                      = 0                   # Write flow analysis data to map file (1: yes, 0: no)
Wrimap_evaporation                        = 0                   # Write evaporation to map file (1: yes, 0: no)
Wrimap_volume1                            = 0                   # Write volumes to map file (1: yes, 0: no)
Wrimap_waterdepth                         = 0                   # Write water depths to map file (1: yes, 0: no)
Wrimap_waterdepth_hu                      = 0                   # Write water depths on u-points to map file (1: yes, 0: no)
Wrimap_ancillary_variables                = 0                   # Write ancillary_variables attributes to map file (1: yes, 0: no)
Wrimap_flowarea_au                        = 0                   # Write flow areas au to map file (1: yes, 0: no)
Wrimap_velocity_component_u0              = 0                   # Write velocity component for previous time step to map file (1: yes, 0: no)
Wrimap_velocity_component_u1              = 0                   # Write velocity component to map file (1: yes, 0: no)
Wrimap_velocity_vector                    = 1                   # Write cell-center velocity vectors to map file (1: yes, 0: no)
Wrimap_velocity_magnitude                 = 0                   # Write cell-center velocity vector magnitude to map file (1: yes, 0: no)
Wrimap_velocity_vectorq                   = 0                   # Write cell-center velocity vectors (discharge-based) to map file (1: yes, 0: no)
Wrimap_upward_velocity_component          = 0                   # Write upward velocity component on cell interfaces (1: yes, 0: no)
Wrimap_density_rho                        = 0                   # Write flow density to map file (1: yes, 0: no)
Wrimap_horizontal_viscosity_viu           = 0                   # Write horizontal viscosity to map file (1: yes, 0: no)
Wrimap_horizontal_diffusivity_diu         = 0                   # Write horizontal diffusivity to map file (1: yes, 0: no)
Wrimap_flow_flux_q1                       = 0                   # Write flow flux to map file (1: yes, 0: no)
Wrimap_flow_flux_q1_main                  = 0                   # Write flow flux in main channel to map file (1: yes, 0: no)
Wrimap_numlimdt                           = 1                   # Write the number times a cell was Courant limiting to map file (1: yes, 0: no). (Consider using Wrimap_flow_analysis instead.)
Wrimap_taucurrent                         = 0                   # Write the shear stress to map file (1: yes, 0: no)
Wrimap_chezy                              = 0                   # Write the chezy roughness to map file (1: yes, 0: no)
Wrimap_turbulence                         = 0                   # Write vicww, k and eps to map file (1: yes, 0: no)
Wrimap_rain                               = 0                   # Write rainfall rates to map file (1: yes, 0: no)
Wrimap_interception                       = 0                   # Write interception to map file (1: yes, 0: no)
Wrimap_wind                               = 0                   # Write wind velocities to map file (1: yes, 0: no)
Wrimap_windstress                         = 0                   # Write wind stress to map file (1: yes, 0: no)
Writek_CdWind                             = 0                   # Write wind friction coeffs to tek file (1: yes, 0: no)
Wrimap_heat_fluxes                        = 0                   # Write heat fluxes to map file (1: yes, 0: no)
Wrimap_DTcell                             = 0                   # Write time step per cell based on CFL (1: yes, 0: no)
Wrimap_wet_waterdepth_threshold           = 2.d-5               # Waterdepth threshold above which a grid point counts as 'wet'. Used for Wrimap_time_water_on_ground.
Wrimap_time_water_on_ground               = 0                   # Write cumulative time when water is above ground level to map file, only for 1D nodes (1: yes, 0: no)
Wrimap_freeboard                          = 0                   # Write freeboard to map file, only for 1D nodes (1: yes, 0: no)
Wrimap_waterdepth_on_ground               = 0                   # Write waterdepth that is above ground level to map file, only for 1D nodes (1: yes, 0: no)
Wrimap_volume_on_ground                   = 0                   # Write volume that is above ground level to map file, only for 1D nodes (1: yes, 0: no)
Wrimap_total_net_inflow_1d2d              = 0                   # Write current total 1d2d net inflow (discharge) and cumulative total 1d2d net inflow (volume) to map file, only for 1D nodes (1: yes, 0: no)
Wrimap_total_net_inflow_lateral           = 0                   # Write current total lateral net inflow (discharge) and cumulative total net lateral inflow (volume) to map file, only for 1D nodes (1: yes, 0: no)
Wrimap_water_level_gradient               = 0                   # Write water level gradient to map file, only on 1D links (1: yes, 0: no)
Wrimap_tidal_potential                    = 0                   # Write tidal potential to map file (1: yes, 0: no)
Richardsononoutput                        = 0                   # Write Richardson numbers (1: yes, 0: no)
Wrishp_crs                                = 0                   # Write grid-snapped cross sections to shapefile (1: yes, 0: no)
Wrishp_obs                                = 0                   # Write grid-snapped observation stations to shapefile (1: yes, 0: no)
Wrishp_weir                               = 0                   # Write grid-snapped weirs to shapefile (1: yes, 0: no)
Wrishp_thd                                = 0                   # Write grid-snapped thin dams to shapefile (1: yes, 0: no)
Wrishp_gate                               = 0                   # Write grid-snapped gates to shapefile (1: yes, 0: no)
Wrishp_emb                                = 0                   # Write grid-snapped 1d2d embankments to shapefile (1: yes, 0: no)
Wrishp_fxw                                = 0                   # Write grid-snapped fixed weirs to shapefile (1: yes, 0: no)
Wrishp_src                                = 0                   # Write grid-snapped source-sinks to shapefile (1: yes, 0: no)
Wrishp_pump                               = 0                   # Write grid-snapped pumps to shapefile (1: yes, 0: no)
Wrishp_dryarea                            = 0                   # Write a shape file for dry areas
wrishp_genstruc                           = 0                   # Write a shape file for general structures
MapOutputTimeVector                       =                     # File (*.mpt) containing fixed map output times (s) w.r.t. RefDate
FullGridOutput                            = 0                   # Full grid output mode for layer positions (0: compact, 1: full time-varying grid layer data)
EulerVelocities                           = 0                   # Euler velocities output (0: GLM, 1: Euler velocities)
Wrimap_bnd                                = 0                   # Write boundary points to map file (1: yes, 0: no)
Wrimap_Qin                                = 0                   # Write sum of all influxes to map file (1: yes, 0: no)
Wrimap_every_dt                           = 0                   # Write output to map file every dt, based on start and stop from MapInterval, 0=no (default), 1=yes

[particles]
ParticlesFile                             = 
ParticlesReleaseFile                      = 
AddTracer                                 = 0                   # add tracer (1) or not (other)
StartTime                                 = 0.                  # starttime (if >0)
TimeStep                                  = 0.                  # time step (>0) or every computational time step
3Dtype                                    = 0                   # 3D type: depth averaged (0) or free surface (1)

[processes]
SubstanceFile                             =                     # substance file
AdditionalHistoryOutputFile               =                     # extra history output file
StatisticsFile                            =                     # statistics file
ThetaVertical                             = 0.                  # theta vertical for waq
DtProcesses                               = 0.                  # waq processes time step
ProcessFluxIntegration                    = 1                   # Process fluxes integration option (1: WAQ, 2: D-Flow FM)
Wriwaqbot3Doutput                         = 0                   # Write 3D water quality bottom variables (1: yes, 0: no)
VolumeDryThreshold                        = 1.d-3
DepthDryThreshold                         = 1.d-3