* Deltares, D-Flow FM Version 1.1.90.000000, Jan 06 2014, 19:54:34
* File creation date: 17:36:01, 27-01-2014                                      
Missing Value=      -999.000
       5       4
       0       0       0
 ETA=    1  6.000000000000000000E+01  1.700000000000000000E+02  2.800000000000000000E+02  3.900000000000000000E+02  5.000000000000000000E+02
 ETA=    2  6.000000000000000000E+01  1.700000000000000000E+02  2.800000000000000000E+02  3.900000000000000000E+02  5.000000000000000000E+02
 ETA=    3  6.000000000000000000E+01  1.700000000000000000E+02  2.800000000000000000E+02  3.900000000000000000E+02  5.000000000000000000E+02
 ETA=    4  6.000000000000000000E+01  1.700000000000000000E+02  2.800000000000000000E+02  3.900000000000000000E+02  5.000000000000000000E+02
 ETA=    1  6.000000000000000000E+01  6.000000000000000000E+01  6.000000000000000000E+01  6.000000000000000000E+01  6.000000000000000000E+01
 ETA=    2  1.700000000000000000E+02  1.700000000000000000E+02  1.700000000000000000E+02  1.700000000000000000E+02  1.700000000000000000E+02
 ETA=    3  2.800000000000000000E+02  2.800000000000000000E+02  2.800000000000000000E+02  2.800000000000000000E+02  2.800000000000000000E+02
 ETA=    4  3.900000000000000000E+02  3.900000000000000000E+02  3.900000000000000000E+02  3.900000000000000000E+02  3.900000000000000000E+02
